100
XYZ file made by HelixCalc
H 0.557266 -0.546825 67.5833
H 0.309589 0.729192 66.2179
H -0.825094 0.0959362 64.8521
H 0.130774 -0.78571 63.4872
H 0.67172 0.396607 62.1221
H -0.619485 0.541944 60.7563
H -0.354763 -0.730884 59.3911
H 0.773128 -0.083545 58.0262
H -0.192461 0.786141 56.6605
H -0.717468 -0.40281 55.295
H 0.576626 -0.532056 53.9302
H 0.29726 0.737385 52.5648
H -0.821307 0.076064 51.199
H 0.156214 -0.781528 49.8341
H 0.667559 0.413874 48.469
H -0.626864 0.527008 47.1031
H -0.330537 -0.73885 45.7379
H 0.78089 -0.063648 44.3731
H -0.206051 0.781716 43.0073
H -0.701296 -0.419951 41.6418
H 0.595614 -0.516956 40.2771
H 0.284732 0.745123 38.9116
H -0.817024 0.0561453 37.5458
H 0.181543 -0.77686 36.1809
H 0.662971 0.430886 34.8158
H -0.633867 0.511746 33.4499
H -0.306119 -0.746357 32.0848
H 0.788155 -0.0437109 30.7199
H -0.219525 0.776807 29.3542
H -0.684701 -0.436831 27.9887
H 0.614222 -0.501534 26.6239
H 0.272018 0.752399 25.2584
H -0.812245 0.0361927 23.8927
H 0.20675 -0.77171 22.5278
H 0.657963 0.447632 21.1627
H -0.640486 0.496168 19.7968
H -0.281519 -0.753401 18.4316
H 0.794923 -0.0237458 17.0668
H -0.23287 0.771417 15.701
H -0.667689 -0.45344 14.3355
H 0.632442 -0.485801 12.9708
H 0.259129 0.75921 11.6053
H -0.806968 0.0162183 10.2395
H 0.231823 -0.766082 8.87465
H 0.652541 0.464101 7.50951
H -0.646713 0.480283 6.14364
H -0.25675 -0.759977 4.77849
H 0.801195 -0.00376529 3.41363
H -0.246075 0.76555 2.04787
H -0.650267 -0.469767 0.682377
H 0.650267 -0.469767 -0.682377
H 0.246075 0.76555 -2.04787
H -0.801195 -0.00376529 -3.41363
H 0.25675 -0.759977 -4.77849
H 0.646713 0.480283 -6.14364
H -0.652541 0.464101 -7.50951
H -0.231823 -0.766082 -8.87465
H 0.806968 0.0162183 -10.2395
H -0.259129 0.75921 -11.6053
H -0.632442 -0.485801 -12.9708
H 0.667689 -0.45344 -14.3355
H 0.23287 0.771417 -15.701
H -0.794923 -0.0237458 -17.0668
H 0.281519 -0.753401 -18.4316
H 0.640486 0.496168 -19.7968
H -0.657963 0.447632 -21.1627
H -0.20675 -0.77171 -22.5278
H 0.812245 0.0361927 -23.8927
H -0.272018 0.752399 -25.2584
H -0.614222 -0.501534 -26.6239
H 0.684701 -0.436831 -27.9887
H 0.219525 0.776807 -29.3542
H -0.788155 -0.0437109 -30.7199
H 0.306119 -0.746357 -32.0848
H 0.633867 0.511746 -33.4499
H -0.662971 0.430886 -34.8158
H -0.181543 -0.77686 -36.1809
H 0.817024 0.0561453 -37.5458
H -0.284732 0.745123 -38.9116
H -0.595614 -0.516956 -40.2771
H 0.701296 -0.419951 -41.6418
H 0.206051 0.781716 -43.0073
H -0.78089 -0.063648 -44.3731
H 0.330537 -0.73885 -45.7379
H 0.626864 0.527008 -47.1031
H -0.667559 0.413874 -48.469
H -0.156214 -0.781528 -49.8341
H 0.821307 0.076064 -51.199
H -0.29726 0.737385 -52.5648
H -0.576626 -0.532056 -53.9302
H 0.717468 -0.40281 -55.295
H 0.192461 0.786141 -56.6605
H -0.773128 -0.083545 -58.0262
H 0.354763 -0.730884 -59.3911
H 0.619485 0.541944 -60.7563
H -0.67172 0.396607 -62.1221
H -0.130774 -0.78571 -63.4872
H 0.825094 0.0959362 -64.8521
H -0.309589 0.729192 -66.2179
H -0.557266 -0.546825 -67.5833
